11

C 0.0000000 0.0000000 0.5863880
C 0.0000000 1.2772660 -0.2598690
C 0.0000000 -1.2772660 -0.2598690
H 0.8776490 0.0000000 1.2470320
H -0.8776490 0.0000000 1.2470320
H 0.0000000 2.1760070 0.3677010
H 0.0000000 -2.1760070 0.3677010
H 0.8846270 1.3224170 -0.9073410
H -0.8846270 1.3224170 -0.9073410
H -0.8846270 -1.3224170 -0.9073410
H 0.8846270 -1.3224170 -0.9073410